# =========================
# pkg AUTODIFF parameters :
# =========================
#  inAdExact :: get an exact adjoint (no approximation) (def=.True.)
#
 &AUTODIFF_PARM01
#useGGL90inAdMode = .FALSE.,
 useKPPinAdMode = .FALSE.,
 useGMRediInAdMode = .FALSE.,
#inAdExact = .FALSE.,
 viscFacInAd = 2.,
 &
